#
#	File Created by: Spartan '14 Export
#

@<TRIPOS>MOLECULE
M0001
6 4
SMALL
NO_CHARGES


@<TRIPOS>ATOM
    1   H1         0.938689125    -0.810086214    -0.047377558       H   1  M0001
    2   N2         0.405155473    -0.000006649     0.327487867   N.pl3   1  M0001
    3   H3         0.938706861     0.810066301    -0.047366606       H   1  M0001
    4   O4        -0.811627031     0.000012059    -0.469556755       O   1  M0001
    5   H5        -0.535551093     0.000015461    -1.419876138       H   1  M0001
    6   Li6       -0.935373336    -0.000000959     1.656689191      Li   1  M0001


@<TRIPOS>BOND
    1      1      2    1
    2      2      3    1
    3      4      5    1
    4      2      4    1
