#
#	File Created by: Spartan '14 Export
#

@<TRIPOS>MOLECULE
M0001
5 4
SMALL
NO_CHARGES


@<TRIPOS>ATOM
    1   H1        -0.310819892     0.477416034     1.092625834       H   1  M0001
    2   N2         0.321029237     0.013328027     0.434808191   N.pl3   1  M0001
    3   H3         0.300721406    -0.978617061     0.685741621       H   1  M0001
    4   O4        -0.460512264     0.027598608    -0.790904988       O   1  M0001
    5   H5         0.149581513     0.460274393    -1.422270657       H   1  M0001


@<TRIPOS>BOND
    1      1      2    1
    2      2      3    1
    3      4      5    1
    4      2      4    1
